<?xml version="1.0" encoding="UTF-8"?>

<!-- generated on 04/24/19 15:24:11 by Eclipse SUMO netconvert Version 1.1.0
<configuration xmlns:xsi="http://www.w3.org/2001/XMLSchema-instance" xsi:noNamespaceSchemaLocation="http://sumo.dlr.de/xsd/netconvertConfiguration.xsd">

    <input>
        <osm-files value="data/map.osm.xml"/>
    </input>

    <output>
        <output-file value="data/map.net.xml"/>
    </output>

    <projection>
        <proj.utm value="true"/>
    </projection>

    <processing>
        <geometry.remove value="true"/>
    </processing>

    <tls_building>
        <tls.join value="true"/>
        <tls.guess-signals value="true"/>
    </tls_building>

    <junctions>
        <junctions.join value="true"/>
    </junctions>

</configuration>
-->

<net version="1.1" junctionCornerDetail="5" limitTurnSpeed="5.50" xmlns:xsi="http://www.w3.org/2001/XMLSchema-instance" xsi:noNamespaceSchemaLocation="http://sumo.dlr.de/xsd/net_file.xsd">

    <location netOffset="-337346.49,-3443591.63" convBoundary="0.00,0.00,32700.17,21278.65" origBoundary="121.292959,31.117440,121.634821,31.309783" projParameter="+proj=utm +zone=51 +ellps=WGS84 +datum=WGS84 +units=m +no_defs"/>

    <type id="highway.bridleway" priority="1" numLanes="1" speed="2.78" allow="pedestrian" oneway="1" width="2.00"/>
    <type id="highway.bus_guideway" priority="1" numLanes="1" speed="27.78" allow="bus" oneway="1"/>
    <type id="highway.cycleway" priority="1" numLanes="1" speed="8.33" allow="bicycle" oneway="0" width="1.00"/>
    <type id="highway.footway" priority="1" numLanes="1" speed="2.78" allow="pedestrian" oneway="1" width="2.00"/>
    <type id="highway.ford" priority="1" numLanes="1" speed="2.78" allow="army" oneway="0"/>
    <type id="highway.living_street" priority="3" numLanes="1" speed="2.78" disallow="tram rail_urban rail rail_electric ship" oneway="0"/>
    <type id="highway.motorway" priority="13" numLanes="2" speed="44.44" allow="private emergency authority army vip passenger hov taxi bus coach delivery truck trailer motorcycle evehicle custom1 custom2" oneway="1"/>
    <type id="highway.motorway_link" priority="12" numLanes="1" speed="22.22" allow="private emergency authority army vip passenger hov taxi bus coach delivery truck trailer motorcycle evehicle custom1 custom2" oneway="1"/>
    <type id="highway.path" priority="1" numLanes="1" speed="2.78" allow="bicycle pedestrian" oneway="1" width="2.00"/>
    <type id="highway.pedestrian" priority="1" numLanes="1" speed="2.78" allow="pedestrian" oneway="1" width="2.00"/>
    <type id="highway.primary" priority="9" numLanes="2" speed="27.78" disallow="tram rail_urban rail rail_electric ship" oneway="0"/>
    <type id="highway.primary_link" priority="8" numLanes="1" speed="22.22" disallow="tram rail_urban rail rail_electric ship" oneway="0"/>
    <type id="highway.raceway" priority="14" numLanes="2" speed="83.33" allow="vip" oneway="0"/>
    <type id="highway.residential" priority="4" numLanes="1" speed="13.89" disallow="tram rail_urban rail rail_electric ship" oneway="0"/>
    <type id="highway.secondary" priority="7" numLanes="2" speed="27.78" disallow="tram rail_urban rail rail_electric ship" oneway="0"/>
    <type id="highway.secondary_link" priority="6" numLanes="1" speed="22.22" disallow="tram rail_urban rail rail_electric ship" oneway="0"/>
    <type id="highway.service" priority="2" numLanes="1" speed="5.56" allow="delivery bicycle pedestrian" oneway="0"/>
    <type id="highway.stairs" priority="1" numLanes="1" speed="1.39" allow="pedestrian" oneway="1" width="2.00"/>
    <type id="highway.step" priority="1" numLanes="1" speed="1.39" allow="pedestrian" oneway="1" width="2.00"/>
    <type id="highway.steps" priority="1" numLanes="1" speed="1.39" allow="pedestrian" oneway="1" width="2.00"/>
    <type id="highway.tertiary" priority="6" numLanes="1" speed="22.22" disallow="tram rail_urban rail rail_electric ship" oneway="0"/>
    <type id="highway.tertiary_link" priority="5" numLanes="1" speed="22.22" disallow="tram rail_urban rail rail_electric ship" oneway="0"/>
    <type id="highway.track" priority="1" numLanes="1" speed="5.56" disallow="tram rail_urban rail rail_electric ship" oneway="0"/>
    <type id="highway.trunk" priority="11" numLanes="2" speed="27.78" disallow="tram rail_urban rail rail_electric bicycle pedestrian ship" oneway="0"/>
    <type id="highway.trunk_link" priority="10" numLanes="1" speed="22.22" disallow="tram rail_urban rail rail_electric bicycle pedestrian ship" oneway="0"/>
    <type id="highway.unclassified" priority="5" numLanes="1" speed="13.89" disallow="tram rail_urban rail rail_electric ship" oneway="0"/>
    <type id="highway.unsurfaced" priority="1" numLanes="1" speed="8.33" disallow="tram rail_urban rail rail_electric ship" oneway="0"/>
    <type id="railway.light_rail" priority="15" numLanes="1" speed="27.78" allow="rail_urban" oneway="1"/>
    <type id="railway.preserved" priority="15" numLanes="1" speed="27.78" allow="rail" oneway="1"/>
    <type id="railway.rail" priority="15" numLanes="1" speed="83.33" allow="rail rail_electric" oneway="1"/>
    <type id="railway.subway" priority="15" numLanes="1" speed="27.78" allow="rail_urban" oneway="1"/>
    <type id="railway.tram" priority="15" numLanes="1" speed="13.89" allow="tram" oneway="1"/>

    <edge id=":103781336_0" function="internal">
        <lane id=":103781336_0_0" index="0" disallow="tram rail_urban rail rail_electric ship" speed="13.89" length="11.31" shape="18173.99,13762.82 18163.36,13759.07"/>
        <lane id=":103781336_0_1" index="1" disallow="tram rail_urban rail rail_electric ship" speed="13.89" length="11.31" shape="18175.09,13759.82 18164.38,13756.04"/>
    </edge>
    <edge id=":103781336_2" function="internal">
        <lane id=":103781336_2_0" index="0" disallow="tram rail_urban rail rail_electric ship" speed="6.71" length="9.29" shape="18171.88,13752.63 18170.63,13754.81 18168.96,13756.10 18166.88,13756.51 18164.38,13756.04"/>
    </edge>
    <edge id=":103781336_3" function="internal">
        <lane id=":103781336_3_0" index="0" disallow="tram rail_urban rail rail_electric ship" speed="6.49" length="9.04" shape="18166.83,13766.18 18167.30,13763.75 18166.89,13761.75 18165.57,13760.19 18163.36,13759.07"/>
    </edge>
    <edge id=":103781600_0" function="internal">
        <lane id=":103781600_0_0" index="0" disallow="tram rail_urban rail rail_electric ship" speed="6.58" length="9.03" shape="18053.94,14198.46 18051.48,14198.40 18049.56,14199.14 18048.20,14200.67 18047.37,14202.99"/>
    </edge>
    <edge id=":103781600_1" function="internal">
        <lane id=":103781600_1_0" index="0" disallow="tram rail_urban rail rail_electric ship" speed="8.48" length="7.26" shape="18053.94,14198.46 18048.89,14197.04 18047.23,14195.90"/>
    </edge>
    <edge id=":103781600_2" function="internal">
        <lane id=":103781600_2_0" index="0" disallow="tram rail_urban rail rail_electric ship" speed="3.65" length="2.34" shape="18053.94,14198.46 18052.89,14197.47 18052.62,14196.62"/>
    </edge>
    <edge id=":103781600_12" function="internal">
        <lane id=":103781600_12_0" index="0" disallow="tram rail_urban rail rail_electric ship" speed="8.48" length="9.53" shape="18047.23,14195.90 18045.57,14194.77 18043.98,14191.63 18044.13,14187.63"/>
    </edge>
    <edge id=":103781600_13" function="internal">
        <lane id=":103781600_13_0" index="0" disallow="tram rail_urban rail rail_electric ship" speed="3.65" length="2.34" shape="18052.62,14196.62 18053.15,14195.89 18054.46,14195.30"/>
    </edge>
    <edge id=":103781600_3" function="internal">
        <lane id=":103781600_3_0" index="0" disallow="tram rail_urban rail rail_electric ship" speed="7.10" length="11.44" shape="18047.25,14188.34 18047.22,14190.86 18048.42,14192.86 18050.83,14194.34 18054.46,14195.30"/>
    </edge>
    <edge id=":103781600_4" function="internal">
        <lane id=":103781600_4_0" index="0" disallow="tram rail_urban rail rail_electric ship" speed="27.78" length="14.34" shape="18047.25,14188.34 18044.24,14202.36"/>
    </edge>
    <edge id=":103781600_5" function="internal">
        <lane id=":103781600_5_0" index="0" disallow="tram rail_urban rail rail_electric ship" speed="3.65" length="2.57" shape="18047.25,14188.34 18046.20,14189.33 18045.33,14189.54 18045.15,14189.40"/>
    </edge>
    <edge id=":103781600_14" function="internal">
        <lane id=":103781600_14_0" index="0" disallow="tram rail_urban rail rail_electric ship" speed="3.65" length="2.11" shape="18045.15,14189.40 18044.64,14188.98 18044.13,14187.63"/>
    </edge>
    <edge id=":103781600_6" function="internal">
        <lane id=":103781600_6_0" index="0" disallow="tram rail_urban rail rail_electric ship" speed="7.27" length="12.45" shape="18034.34,14191.91 18038.02,14192.68 18040.88,14192.22 18042.91,14190.54 18044.13,14187.63"/>
    </edge>
    <edge id=":103781600_7" function="internal">
        <lane id=":103781600_7_0" index="0" disallow="tram rail_urban rail rail_electric ship" speed="18.06" length="20.43" shape="18034.34,14191.91 18038.79,14193.00 18044.33,14193.90 18049.91,14194.65 18054.46,14195.30"/>
    </edge>
    <edge id=":103781600_8" function="internal">
        <lane id=":103781600_8_0" index="0" disallow="tram rail_urban rail rail_electric ship" speed="8.81" length="15.74" shape="18034.34,14191.91 18039.17,14193.99 18042.43,14196.42 18044.12,14199.21 18044.24,14202.36"/>
    </edge>
    <edge id=":103781600_9" function="internal">
        <lane id=":103781600_9_0" index="0" disallow="tram rail_urban rail rail_electric ship" speed="27.78" length="14.89" shape="18037.96,14201.09 18039.39,14196.61 18041.18,14193.47 18042.90,14190.77 18044.13,14187.63"/>
    </edge>
    <edge id=":103781600_10" function="internal">
        <lane id=":103781600_10_0" index="0" disallow="tram rail_urban rail rail_electric ship" speed="8.73" length="5.30" shape="18041.10,14201.73 18042.57,14198.19 18043.70,14197.25"/>
    </edge>
    <edge id=":103781600_11" function="internal">
        <lane id=":103781600_11_0" index="0" disallow="tram rail_urban rail rail_electric ship" speed="3.65" length="2.34" shape="18041.10,14201.73 18042.12,14200.71 18042.98,14200.47"/>
    </edge>
    <edge id=":103781600_15" function="internal">
        <lane id=":103781600_15_0" index="0" disallow="tram rail_urban rail rail_electric ship" speed="8.73" length="11.37" shape="18043.70,14197.25 18045.28,14195.94 18049.25,14194.98 18054.46,14195.30"/>
    </edge>
    <edge id=":103781600_16" function="internal">
        <lane id=":103781600_16_0" index="0" disallow="tram rail_urban rail rail_electric ship" speed="3.65" length="2.34" shape="18042.98,14200.47 18043.69,14201.02 18044.24,14202.36"/>
    </edge>
    <edge id=":103787886_0" function="internal">
        <lane id=":103787886_0_0" index="0" disallow="tram rail_urban rail rail_electric ship" speed="22.22" length="9.40" shape="18235.38,13602.65 18231.18,13611.05"/>
    </edge>
    <edge id=":103787886_1" function="internal">
        <lane id=":103787886_1_0" index="0" disallow="tram rail_urban rail rail_electric ship" speed="6.44" length="7.94" shape="18235.38,13602.65 18233.96,13604.96 18232.51,13606.45 18231.03,13607.13 18229.52,13606.99"/>
    </edge>
    <edge id=":103787886_2" function="internal">
        <lane id=":103787886_2_0" index="0" disallow="tram rail_urban rail rail_electric ship" speed="5.98" length="8.06" shape="18230.61,13603.98 18231.92,13604.88 18232.45,13606.36 18232.20,13608.42 18231.18,13611.05"/>
    </edge>
    <edge id=":103787886_3" function="internal">
        <lane id=":103787886_3_0" index="0" disallow="tram rail_urban rail rail_electric ship" speed="3.65" length="4.67" shape="18230.61,13603.98 18231.47,13605.14 18231.57,13606.03 18230.92,13606.65 18229.52,13606.99"/>
    </edge>
    <edge id=":103788043_0" function="internal">
        <lane id=":103788043_0_0" index="0" disallow="tram rail_urban rail rail_electric ship" speed="13.89" length="0.28" shape="18285.49,13441.11 18285.76,13441.18"/>
    </edge>
    <edge id=":103788196_0" function="internal">
        <lane id=":103788196_0_0" index="0" disallow="tram rail_urban rail rail_electric ship" speed="22.22" length="0.30" shape="18318.87,13302.56 18318.58,13302.51"/>
        <lane id=":103788196_0_1" index="1" disallow="tram rail_urban rail rail_electric ship" speed="22.22" length="0.30" shape="18319.51,13299.43 18319.21,13299.37"/>
    </edge>
    <edge id=":103795804_0" function="internal">
        <lane id=":103795804_0_0" index="0" disallow="tram rail_urban rail rail_electric ship" speed="6.50" length="9.10" shape="18130.32,13906.40 18127.85,13906.13 18125.90,13906.73 18124.45,13908.20 18123.52,13910.54"/>
    </edge>
    <edge id=":103795804_1" function="internal">
        <lane id=":103795804_1_0" index="0" disallow="tram rail_urban rail rail_electric ship" speed="27.78" length="14.56" shape="18130.32,13906.40 18116.21,13903.14"/>
        <lane id=":103795804_1_1" index="1" disallow="tram rail_urban rail rail_electric ship" speed="27.78" length="14.56" shape="18131.12,13903.30 18116.85,13900.01"/>
    </edge>
    <edge id=":103795804_3" function="internal">
        <lane id=":103795804_3_0" index="0" disallow="tram rail_urban rail rail_electric ship" speed="8.49" length="3.91" shape="18131.12,13903.30 18128.22,13901.78 18127.89,13901.24"/>
    </edge>
    <edge id=":103795804_4" function="internal">
        <lane id=":103795804_4_0" index="0" disallow="tram rail_urban rail rail_electric ship" speed="3.72" length="2.15" shape="18131.12,13903.30 18130.15,13902.22 18130.01,13901.54"/>
    </edge>
    <edge id=":103795804_14" function="internal">
        <lane id=":103795804_14_0" index="0" disallow="tram rail_urban rail rail_electric ship" speed="8.49" length="11.87" shape="18127.89,13901.24 18126.53,13899.03 18126.06,13895.05 18126.79,13889.83"/>
    </edge>
    <edge id=":103795804_15" function="internal">
        <lane id=":103795804_15_0" index="0" disallow="tram rail_urban rail rail_electric ship" speed="3.72" length="2.54" shape="18130.01,13901.54 18129.97,13901.35 18130.55,13900.67 18131.92,13900.20"/>
    </edge>
    <edge id=":103795804_5" function="internal">
        <lane id=":103795804_5_0" index="0" disallow="tram rail_urban rail rail_electric ship" speed="7.09" length="10.71" shape="18118.13,13893.74 18121.45,13894.06 18124.00,13893.52 18125.78,13892.11 18126.79,13889.83"/>
    </edge>
    <edge id=":103795804_6" function="internal">
        <lane id=":103795804_6_0" index="0" disallow="tram rail_urban rail rail_electric ship" speed="27.78" length="14.92" shape="18118.13,13893.74 18122.46,13894.78 18125.38,13895.68 18128.33,13896.44 18132.73,13897.06"/>
        <lane id=":103795804_6_1" index="1" disallow="tram rail_urban rail rail_electric ship" speed="27.78" length="14.92" shape="18117.49,13896.87 18121.77,13897.91 18124.66,13898.81 18127.58,13899.58 18131.92,13900.20"/>
    </edge>
    <edge id=":103795804_8" function="internal">
        <lane id=":103795804_8_0" index="0" disallow="tram rail_urban rail rail_electric ship" speed="8.61" length="5.55" shape="18117.49,13896.87 18121.21,13898.41 18122.17,13899.59"/>
    </edge>
    <edge id=":103795804_9" function="internal">
        <lane id=":103795804_9_0" index="0" disallow="tram rail_urban rail rail_electric ship" speed="3.65" length="2.34" shape="18117.49,13896.87 18118.50,13897.90 18118.74,13898.76"/>
    </edge>
    <edge id=":103795804_16" function="internal">
        <lane id=":103795804_16_0" index="0" disallow="tram rail_urban rail rail_electric ship" speed="8.61" length="11.52" shape="18122.17,13899.59 18123.46,13901.20 18124.23,13905.24 18123.52,13910.54"/>
    </edge>
    <edge id=":103795804_17" function="internal">
        <lane id=":103795804_17_0" index="0" disallow="tram rail_urban rail rail_electric ship" speed="3.65" length="2.34" shape="18118.74,13898.76 18118.18,13899.47 18116.85,13900.01"/>
    </edge>
    <edge id=":103795804_10" function="internal">
        <lane id=":103795804_10_0" index="0" disallow="tram rail_urban rail rail_electric ship" speed="6.42" length="9.04" shape="18120.41,13909.78 18120.65,13907.30 18120.03,13905.37 18118.55,13903.98 18116.21,13903.14"/>
    </edge>
    <edge id=":103795804_11" function="internal">
        <lane id=":103795804_11_0" index="0" disallow="tram rail_urban rail rail_electric ship" speed="20.84" length="20.94" shape="18120.41,13909.78 18126.79,13889.83"/>
    </edge>
    <edge id=":103795804_12" function="internal">
        <lane id=":103795804_12_0" index="0" disallow="tram rail_urban rail rail_electric ship" speed="9.08" length="16.57" shape="18120.41,13909.78 18122.09,13905.25 18124.57,13902.15 18127.85,13900.46 18131.92,13900.20"/>
    </edge>
    <edge id=":103795804_13" function="internal">
        <lane id=":103795804_13_0" index="0" disallow="tram rail_urban rail rail_electric ship" speed="3.65" length="2.56" shape="18120.41,13909.78 18121.47,13908.80 18122.34,13908.60 18122.51,13908.75"/>
    </edge>
    <edge id=":103795804_18" function="internal">
        <lane id=":103795804_18_0" index="0" disallow="tram rail_urban rail rail_electric ship" speed="3.65" length="2.12" shape="18122.51,13908.75 18123.03,13909.18 18123.52,13910.54"/>
    </edge>
    <edge id=":103795925_0" function="internal">
        <lane id=":103795925_0_0" index="0" disallow="tram rail_urban rail rail_electric ship" speed="27.78" length="14.17" shape="18016.10,13892.55 18001.92,13891.91"/>
        <lane id=":103795925_0_1" index="1" disallow="tram rail_urban rail rail_electric ship" speed="27.78" length="14.17" shape="18016.22,13889.35 18002.09,13888.72"/>
    </edge>
    <edge id=":103795925_2" function="internal">
        <lane id=":103795925_2_0" index="0" disallow="tram rail_urban rail rail_electric ship" speed="3.65" length="2.34" shape="18016.22,13889.35 18015.05,13888.51 18014.68,13887.70"/>
    </edge>
    <edge id=":103795925_10" function="internal">
        <lane id=":103795925_10_0" index="0" disallow="tram rail_urban rail rail_electric ship" speed="3.65" length="2.34" shape="18014.68,13887.70 18015.11,13886.91 18016.34,13886.16"/>
    </edge>
    <edge id=":103795925_3" function="internal">
        <lane id=":103795925_3_0" index="0" disallow="tram rail_urban rail rail_electric ship" speed="6.08" length="9.06" shape="18011.99,13876.94 18011.70,13879.49 18012.35,13881.34 18013.93,13882.50 18016.46,13882.96"/>
    </edge>
    <edge id=":103795925_4" function="internal">
        <lane id=":103795925_4_0" index="0" disallow="tram rail_urban rail rail_electric ship" speed="9.33" length="16.60" shape="18011.99,13876.94 18010.18,13882.22 18007.92,13885.95 18005.23,13888.11 18002.09,13888.72"/>
    </edge>
    <edge id=":103795925_5" function="internal">
        <lane id=":103795925_5_0" index="0" disallow="tram rail_urban rail rail_electric ship" speed="27.78" length="14.07" shape="18002.43,13882.33 18016.46,13882.96"/>
        <lane id=":103795925_5_1" index="1" disallow="tram rail_urban rail rail_electric ship" speed="27.78" length="14.07" shape="18002.26,13885.52 18016.34,13886.16"/>
    </edge>
    <edge id=":103795925_7" function="internal">
        <lane id=":103795925_7_0" index="0" disallow="tram rail_urban rail rail_electric ship" speed="3.65" length="2.34" shape="18002.26,13885.52 18003.42,13886.38 18003.77,13887.20"/>
    </edge>
    <edge id=":103795925_11" function="internal">
        <lane id=":103795925_11_0" index="0" disallow="tram rail_urban rail rail_electric ship" speed="3.65" length="2.34" shape="18003.77,13887.20 18003.33,13887.98 18002.09,13888.72"/>
    </edge>
    <edge id=":103795925_8" function="internal">
        <lane id=":103795925_8_0" index="0" disallow="tram rail_urban rail rail_electric ship" speed="6.09" length="9.06" shape="18006.31,13898.00 18006.63,13895.46 18006.01,13893.59 18004.44,13892.41 18001.92,13891.91"/>
    </edge>
    <edge id=":103795925_9" function="internal">
        <lane id=":103795925_9_0" index="0" disallow="tram rail_urban rail rail_electric ship" speed="9.47" length="16.68" shape="18006.31,13898.00 18008.19,13892.73 18010.49,13888.99 18013.21,13886.80 18016.34,13886.16"/>
    </edge>
    <edge id=":103831022_0" function="internal">
        <lane id=":103831022_0_0" index="0" disallow="tram rail_urban rail rail_electric ship" speed="27.78" length="14.54" shape="18198.08,13905.69 18183.52,13906.12"/>
        <lane id=":103831022_0_1" index="1" disallow="tram rail_urban rail rail_electric ship" speed="27.78" length="14.54" shape="18197.97,13902.50 18183.45,13902.92"/>
    </edge>
    <edge id=":103831022_2" function="internal">
        <lane id=":103831022_2_0" index="0" disallow="tram rail_urban rail rail_electric ship" speed="8.67" length="5.33" shape="18197.97,13902.50 18194.08,13901.89 18192.97,13901.04"/>
    </edge>
    <edge id=":103831022_3" function="internal">
        <lane id=":103831022_3_0" index="0" disallow="tram rail_urban rail rail_electric ship" speed="3.65" length="2.34" shape="18197.97,13902.50 18196.74,13901.74 18196.31,13900.96"/>
    </edge>
    <edge id=":103831022_14" function="internal">
        <lane id=":103831022_14_0" index="0" disallow="tram rail_urban rail rail_electric ship" speed="8.67" length="11.56" shape="18192.97,13901.04 18191.25,13899.73 18189.47,13896.03 18188.75,13890.78"/>
    </edge>
    <edge id=":103831022_15" function="internal">
        <lane id=":103831022_15_0" index="0" disallow="tram rail_urban rail rail_electric ship" speed="3.65" length="2.34" shape="18196.31,13900.96 18196.68,13900.14 18197.85,13899.30"/>
    </edge>
    <edge id=":103831022_4" function="internal">
        <lane id=":103831022_4_0" index="0" disallow="tram rail_urban rail rail_electric ship" speed="6.50" length="9.05" shape="18191.95,13890.68 18192.38,13893.13 18193.48,13894.85 18195.27,13895.84 18197.73,13896.10"/>
    </edge>
    <edge id=":103831022_5" function="internal">
        <lane id=":103831022_5_0" index="0" disallow="tram rail_urban rail rail_electric ship" speed="8.65" length="7.12" shape="18191.95,13890.68 18191.56,13895.96 18190.87,13897.65"/>
    </edge>
    <edge id=":103831022_6" function="internal">
        <lane id=":103831022_6_0" index="0" disallow="tram rail_urban rail rail_electric ship" speed="3.65" length="2.34" shape="18191.95,13890.68 18191.19,13891.91 18190.40,13892.33"/>
    </edge>
    <edge id=":103831022_16" function="internal">
        <lane id=":103831022_16_0" index="0" disallow="tram rail_urban rail rail_electric ship" speed="8.65" length="9.79" shape="18190.87,13897.65 18190.02,13899.76 18187.31,13902.08 18183.45,13902.92"/>
    </edge>
    <edge id=":103831022_17" function="internal">
        <lane id=":103831022_17_0" index="0" disallow="tram rail_urban rail rail_electric ship" speed="3.65" length="2.34" shape="18190.40,13892.33 18189.59,13891.96 18188.75,13890.78"/>
    </edge>
    <edge id=":103831022_7" function="internal">
        <lane id=":103831022_7_0" index="0" disallow="tram rail_urban rail rail_electric ship" speed="6.49" length="9.03" shape="18183.31,13896.52 18185.76,13896.12 18187.48,13895.03 18188.48,13893.25 18188.75,13890.78"/>
    </edge>
    <edge id=":103831022_8" function="internal">
        <lane id=":103831022_8_0" index="0" disallow="tram rail_urban rail rail_electric ship" speed="27.78" length="14.45" shape="18183.31,13896.52 18197.73,13896.10"/>
        <lane id=":103831022_8_1" index="1" disallow="tram rail_urban rail rail_electric ship" speed="27.78" length="14.45" shape="18183.38,13899.72 18197.85,13899.30"/>
    </edge>
    <edge id=":103831022_10" function="internal">
        <lane id=":103831022_10_0" index="0" disallow="tram rail_urban rail rail_electric ship" speed="3.65" length="2.34" shape="18183.38,13899.72 18184.60,13900.49 18185.02,13901.28"/>
    </edge>
    <edge id=":103831022_18" function="internal">
        <lane id=":103831022_18_0" index="0" disallow="tram rail_urban rail rail_electric ship" speed="3.65" length="2.34" shape="18185.02,13901.28 18184.63,13902.09 18183.45,13902.92"/>
    </edge>
    <edge id=":103831022_11" function="internal">
        <lane id=":103831022_11_0" index="0" disallow="tram rail_urban rail rail_electric ship" speed="6.64" length="9.99" shape="18190.12,13911.69 18189.82,13909.19 18188.62,13907.43 18186.52,13906.41 18183.52,13906.12"/>
    </edge>
    <edge id=":103831022_12" function="internal">
        <lane id=":103831022_12_0" index="0" disallow="tram rail_urban rail rail_electric ship" speed="13.89" length="20.95" shape="18190.12,13911.69 18190.04,13907.02 18189.59,13901.24 18189.07,13895.46 18188.75,13890.78"/>
    </edge>
    <edge id=":103831022_13" function="internal">
        <lane id=":103831022_13_0" index="0" disallow="tram rail_urban rail rail_electric ship" speed="8.77" length="16.08" shape="18190.12,13911.69 18190.84,13906.36 18192.37,13902.52 18194.71,13900.17 18197.85,13899.30"/>
    </edge>
    <edge id=":103831894_0" function="internal">
        <lane id=":103831894_0_0" index="0" allow="delivery bicycle pedestrian" speed="5.56" length="9.40" shape="18157.91,13993.02 18157.72,14002.42"/>
    </edge>
    <edge id=":103831894_1" function="internal">
        <lane id=":103831894_1_0" index="0" allow="delivery bicycle pedestrian" speed="5.56" length="10.16" shape="18157.91,13993.02 18157.46,13995.75 18156.24,13997.70 18154.24,13998.85 18151.47,13999.21"/>
    </edge>
    <edge id=":103831894_2" function="internal">
        <lane id=":103831894_2_0" index="0" allow="delivery bicycle pedestrian" speed="3.65" length="4.67" shape="18157.91,13993.02 18157.09,13994.21 18156.28,13994.59 18155.49,13994.17 18154.72,13992.96"/>
    </edge>
    <edge id=":103831894_3" function="internal">
        <lane id=":103831894_3_0" index="0" allow="delivery bicycle pedestrian" speed="5.07" length="5.04" shape="18151.51,13996.01 18152.89,13995.83 18153.88,13995.26 18154.49,13994.30 18154.72,13992.96"/>
    </edge>
    <edge id=":103831894_4" function="internal">
        <lane id=":103831894_4_0" index="0" allow="delivery bicycle pedestrian" speed="5.56" length="10.21" shape="18151.51,13996.01 18154.27,13996.43 18156.23,13997.64 18157.38,13999.64 18157.72,14002.42"/>
    </edge>
    <edge id=":103831894_5" function="internal">
        <lane id=":103831894_5_0" index="0" allow="delivery bicycle pedestrian" speed="3.65" length="4.67" shape="18151.51,13996.01 18152.70,13996.82 18153.09,13997.62 18152.68,13998.42 18151.47,13999.21"/>
    </edge>
    <edge id=":103831894_6" function="internal">
        <lane id=":103831894_6_0" index="0" allow="delivery bicycle pedestrian" speed="5.03" length="5.01" shape="18154.52,14002.36 18154.36,14000.99 18153.79,14000.01 18152.83,13999.42 18151.47,13999.21"/>
    </edge>
    <edge id=":103831894_7" function="internal">
        <lane id=":103831894_7_0" index="0" allow="delivery bicycle pedestrian" speed="5.56" length="9.40" shape="18154.52,14002.36 18154.72,13992.96"/>
    </edge>
    <edge id=":103831894_8" function="internal">
        <lane id=":103831894_8_0" index="0" allow="delivery bicycle pedestrian" speed="3.65" length="4.67" shape="18154.52,14002.36 18155.35,14001.17 18156.15,14000.79 18156.95,14001.20 18157.72,14002.42"/>
    </edge>
    <edge id=":103831916_0" function="internal">
        <lane id=":103831916_0_0" index="0" allow="delivery bicycle pedestrian" speed="3.65" length="4.67" shape="18156.07,14079.29 18155.24,14080.47 18154.43,14080.85 18153.64,14080.43 18152.87,14079.21"/>
    </edge>
    <edge id=":103831925_0" function="internal">
        <lane id=":103831925_0_0" index="0" allow="delivery bicycle pedestrian" speed="3.65" length="4.67" shape="18114.55,14039.68 18113.35,14038.87 18112.96,14038.07 18113.36,14037.27 18114.56,14036.48"/>
    </edge>
    <edge id=":103832003_0" function="internal">
        <lane id=":103832003_0_0" index="0" allow="delivery bicycle pedestrian" speed="5.56" length="9.40" shape="18157.09,14033.65 18156.90,14043.05"/>
    </edge>
    <edge id=":103832003_1" function="internal">
        <lane id=":103832003_1_0" index="0" allow="delivery bicycle pedestrian" speed="5.56" length="10.17" shape="18157.09,14033.65 18156.64,14036.37 18155.41,14038.31 18153.41,14039.47 18150.64,14039.85"/>
    </edge>
    <edge id=":103832003_2" function="internal">
        <lane id=":103832003_2_0" index="0" allow="delivery bicycle pedestrian" speed="3.65" length="4.67" shape="18157.09,14033.65 18156.26,14034.84 18155.46,14035.22 18154.67,14034.80 18153.89,14033.59"/>
    </edge>
    <edge id=":103832003_3" function="internal">
        <lane id=":103832003_3_0" index="0" allow="delivery bicycle pedestrian" speed="5.09" length="5.06" shape="18150.65,14036.65 18152.04,14036.46 18153.05,14035.89 18153.66,14034.93 18153.89,14033.59"/>
    </edge>
    <edge id=":103832003_4" function="internal">
        <lane id=":103832003_4_0" index="0" allow="delivery bicycle pedestrian" speed="5.56" length="10.24" shape="18150.65,14036.65 18153.43,14037.06 18155.40,14038.26 18156.56,14040.26 18156.90,14043.05"/>
    </edge>
    <edge id=":103832003_5" function="internal">
        <lane id=":103832003_5_0" index="0" allow="delivery bicycle pedestrian" speed="3.65" length="4.67" shape="18150.65,14036.65 18151.85,14037.45 18152.24,14038.25 18151.84,14039.05 18150.64,14039.85"/>
    </edge>
    <edge id=":103832003_6" function="internal">
        <lane id=":103832003_6_0" index="0" allow="delivery bicycle pedestrian" speed="5.02" length="5.02" shape="18153.70,14042.99 18153.53,14041.62 18152.96,14040.64 18152.00,14040.05 18150.64,14039.85"/>
    </edge>
    <edge id=":103832003_7" function="internal">
        <lane id=":103832003_7_0" index="0" allow="delivery bicycle pedestrian" speed="5.56" length="9.40" shape="18153.70,14042.99 18153.89,14033.59"/>
    </edge>
    <edge id=":103832003_8" function="internal">