<?xml version="1.0" encoding="UTF-8"?>

<!-- generated on 04/24/19 14:14:50 by Eclipse SUMO netconvert Version 1.1.0
<configuration xmlns:xsi="http://www.w3.org/2001/XMLSchema-instance" xsi:noNamespaceSchemaLocation="http://sumo.dlr.de/xsd/netconvertConfiguration.xsd">

    <input>
        <sumo-net-file value="data/grid.net.xml"/>
    </input>

    <output>
        <output-file value="data/grid.tls.net.xml"/>
    </output>

    <processing>
        <geometry.max-grade.fix value="false"/>
        <offset.disable-normalization value="true"/>
        <lefthand value="false"/>
    </processing>

    <tls_building>
        <tls.set value="0,1,2,3,4"/>
    </tls_building>

    <junctions>
        <no-turnarounds value="true"/>
        <junctions.corner-detail value="5"/>
        <junctions.limit-turn-speed value="5.5"/>
        <rectangular-lane-cut value="false"/>
    </junctions>

    <pedestrian>
        <walkingareas value="false"/>
    </pedestrian>

</configuration>
-->

<net version="1.1" junctionCornerDetail="5" limitTurnSpeed="5.50" xmlns:xsi="http://www.w3.org/2001/XMLSchema-instance" xsi:noNamespaceSchemaLocation="http://sumo.dlr.de/xsd/net_file.xsd">

    <location netOffset="0.00,0.00" convBoundary="0.00,0.00,4000.00,4000.00" origBoundary="0.00,0.00,4000.00,4000.00" projParameter="!"/>

    <edge id=":0_0" function="internal">
        <lane id=":0_0_0" index="0" speed="6.51" length="9.03" shape="192.00,213.60 191.65,211.15 190.60,209.40 188.85,208.35 186.40,208.00"/>
    </edge>
    <edge id=":0_1" function="internal">
        <lane id=":0_1_0" index="0" speed="13.89" length="27.20" shape="192.00,213.60 192.00,186.40"/>
        <lane id=":0_1_1" index="1" speed="13.89" length="27.20" shape="195.20,213.60 195.20,186.40"/>
        <lane id=":0_1_2" index="2" speed="13.89" length="27.20" shape="198.40,213.60 198.40,186.40"/>
    </edge>
    <edge id=":0_4" function="internal">
        <lane id=":0_4_0" index="0" speed="10.36" length="7.98" shape="198.40,213.60 199.35,206.95 200.00,205.87"/>
    </edge>
    <edge id=":0_20" function="internal">
        <lane id=":0_20_0" index="0" speed="10.36" length="16.53" shape="200.00,205.87 202.20,202.20 206.95,199.35 213.60,198.40"/>
    </edge>
    <edge id=":0_5" function="internal">
        <lane id=":0_5_0" index="0" speed="6.51" length="9.03" shape="213.60,208.00 211.15,208.35 209.40,209.40 208.35,211.15 208.00,213.60"/>
    </edge>
    <edge id=":0_6" function="internal">
        <lane id=":0_6_0" index="0" speed="13.89" length="27.20" shape="213.60,208.00 186.40,208.00"/>
        <lane id=":0_6_1" index="1" speed="13.89" length="27.20" shape="213.60,204.80 186.40,204.80"/>
        <lane id=":0_6_2" index="2" speed="13.89" length="27.20" shape="213.60,201.60 186.40,201.60"/>
    </edge>
    <edge id=":0_9" function="internal">
        <lane id=":0_9_0" index="0" speed="10.36" length="7.98" shape="213.60,201.60 206.95,200.65 205.87,200.00"/>
    </edge>
    <edge id=":0_21" function="internal">
        <lane id=":0_21_0" index="0" speed="10.36" length="16.53" shape="205.87,200.00 202.20,197.80 199.35,193.05 198.40,186.40"/>
    </edge>
    <edge id=":0_10" function="internal">
        <lane id=":0_10_0" index="0" speed="6.51" length="9.03" shape="208.00,186.40 208.35,188.85 209.40,190.60 211.15,191.65 213.60,192.00"/>
    </edge>
    <edge id=":0_11" function="internal">
        <lane id=":0_11_0" index="0" speed="13.89" length="27.20" shape="208.00,186.40 208.00,213.60"/>
        <lane id=":0_11_1" index="1" speed="13.89" length="27.20" shape="204.80,186.40 204.80,213.60"/>
        <lane id=":0_11_2" index="2" speed="13.89" length="27.20" shape="201.60,186.40 201.60,213.60"/>
    </edge>
    <edge id=":0_14" function="internal">
        <lane id=":0_14_0" index="0" speed="10.36" length="7.98" shape="201.60,186.40 200.65,193.05 200.00,194.13"/>
    </edge>
    <edge id=":0_22" function="internal">
        <lane id=":0_22_0" index="0" speed="10.36" length="16.53" shape="200.00,194.13 197.80,197.80 193.05,200.65 186.40,201.60"/>
    </edge>
    <edge id=":0_15" function="internal">
        <lane id=":0_15_0" index="0" speed="6.51" length="9.03" shape="186.40,192.00 188.85,191.65 190.60,190.60 191.65,188.85 192.00,186.40"/>
    </edge>
    <edge id=":0_16" function="internal">
        <lane id=":0_16_0" index="0" speed="13.89" length="27.20" shape="186.40,192.00 213.60,192.00"/>
        <lane id=":0_16_1" index="1" speed="13.89" length="27.20" shape="186.40,195.20 213.60,195.20"/>
        <lane id=":0_16_2" index="2" speed="13.89" length="27.20" shape="186.40,198.40 213.60,198.40"/>
    </edge>
    <edge id=":0_19" function="internal">
        <lane id=":0_19_0" index="0" speed="10.36" length="7.98" shape="186.40,198.40 193.05,199.35 194.13,200.00"/>
    </edge>
    <edge id=":0_23" function="internal">
        <lane id=":0_23_0" index="0" speed="10.36" length="16.53" shape="194.13,200.00 197.80,202.20 200.65,206.95 201.60,213.60"/>
    </edge>
    <edge id=":1_0" function="internal">
        <lane id=":1_0_0" index="0" speed="6.51" length="9.03" shape="192.00,613.60 191.65,611.15 190.60,609.40 188.85,608.35 186.40,608.00"/>
    </edge>
    <edge id=":1_1" function="internal">
        <lane id=":1_1_0" index="0" speed="13.89" length="27.20" shape="192.00,613.60 192.00,586.40"/>
        <lane id=":1_1_1" index="1" speed="13.89" length="27.20" shape="195.20,613.60 195.20,586.40"/>
        <lane id=":1_1_2" index="2" speed="13.89" length="27.20" shape="198.40,613.60 198.40,586.40"/>
    </edge>
    <edge id=":1_4" function="internal">
        <lane id=":1_4_0" index="0" speed="10.36" length="7.98" shape="198.40,613.60 199.35,606.95 200.00,605.87"/>
    </edge>
    <edge id=":1_20" function="internal">
        <lane id=":1_20_0" index="0" speed="10.36" length="16.53" shape="200.00,605.87 202.20,602.20 206.95,599.35 213.60,598.40"/>
    </edge>
    <edge id=":1_5" function="internal">
        <lane id=":1_5_0" index="0" speed="6.51" length="9.03" shape="213.60,608.00 211.15,608.35 209.40,609.40 208.35,611.15 208.00,613.60"/>
    </edge>
    <edge id=":1_6" function="internal">
        <lane id=":1_6_0" index="0" speed="13.89" length="27.20" shape="213.60,608.00 186.40,608.00"/>
        <lane id=":1_6_1" index="1" speed="13.89" length="27.20" shape="213.60,604.80 186.40,604.80"/>
        <lane id=":1_6_2" index="2" speed="13.89" length="27.20" shape="213.60,601.60 186.40,601.60"/>
    </edge>
    <edge id=":1_9" function="internal">
        <lane id=":1_9_0" index="0" speed="10.36" length="7.98" shape="213.60,601.60 206.95,600.65 205.87,600.00"/>
    </edge>
    <edge id=":1_21" function="internal">
        <lane id=":1_21_0" index="0" speed="10.36" length="16.53" shape="205.87,600.00 202.20,597.80 199.35,593.05 198.40,586.40"/>
    </edge>
    <edge id=":1_10" function="internal">
        <lane id=":1_10_0" index="0" speed="6.51" length="9.03" shape="208.00,586.40 208.35,588.85 209.40,590.60 211.15,591.65 213.60,592.00"/>
    </edge>
    <edge id=":1_11" function="internal">
        <lane id=":1_11_0" index="0" speed="13.89" length="27.20" shape="208.00,586.40 208.00,613.60"/>
        <lane id=":1_11_1" index="1" speed="13.89" length="27.20" shape="204.80,586.40 204.80,613.60"/>
        <lane id=":1_11_2" index="2" speed="13.89" length="27.20" shape="201.60,586.40 201.60,613.60"/>
    </edge>
    <edge id=":1_14" function="internal">
        <lane id=":1_14_0" index="0" speed="10.36" length="7.98" shape="201.60,586.40 200.65,593.05 200.00,594.13"/>
    </edge>
    <edge id=":1_22" function="internal">
        <lane id=":1_22_0" index="0" speed="10.36" length="16.53" shape="200.00,594.13 197.80,597.80 193.05,600.65 186.40,601.60"/>
    </edge>
    <edge id=":1_15" function="internal">
        <lane id=":1_15_0" index="0" speed="6.51" length="9.03" shape="186.40,592.00 188.85,591.65 190.60,590.60 191.65,588.85 192.00,586.40"/>
    </edge>
    <edge id=":1_16" function="internal">
        <lane id=":1_16_0" index="0" speed="13.89" length="27.20" shape="186.40,592.00 213.60,592.00"/>
        <lane id=":1_16_1" index="1" speed="13.89" length="27.20" shape="186.40,595.20 213.60,595.20"/>
        <lane id=":1_16_2" index="2" speed="13.89" length="27.20" shape="186.40,598.40 213.60,598.40"/>
    </edge>
    <edge id=":1_19" function="internal">
        <lane id=":1_19_0" index="0" speed="10.36" length="7.98" shape="186.40,598.40 193.05,599.35 194.13,600.00"/>
    </edge>
    <edge id=":1_23" function="internal">
        <lane id=":1_23_0" index="0" speed="10.36" length="16.53" shape="194.13,600.00 197.80,602.20 200.65,606.95 201.60,613.60"/>
    </edge>
    <edge id=":10_0" function="internal">
        <lane id=":10_0_0" index="0" speed="6.51" length="9.03" shape="592.00,213.60 591.65,211.15 590.60,209.40 588.85,208.35 586.40,208.00"/>
    </edge>
    <edge id=":10_1" function="internal">
        <lane id=":10_1_0" index="0" speed="13.89" length="27.20" shape="592.00,213.60 592.00,186.40"/>
        <lane id=":10_1_1" index="1" speed="13.89" length="27.20" shape="595.20,213.60 595.20,186.40"/>
        <lane id=":10_1_2" index="2" speed="13.89" length="27.20" shape="598.40,213.60 598.40,186.40"/>
    </edge>
    <edge id=":10_4" function="internal">
        <lane id=":10_4_0" index="0" speed="10.36" length="7.98" shape="598.40,213.60 599.35,206.95 600.00,205.87"/>
    </edge>
    <edge id=":10_20" function="internal">
        <lane id=":10_20_0" index="0" speed="10.36" length="16.53" shape="600.00,205.87 602.20,202.20 606.95,199.35 613.60,198.40"/>
    </edge>
    <edge id=":10_5" function="internal">
        <lane id=":10_5_0" index="0" speed="6.51" length="9.03" shape="613.60,208.00 611.15,208.35 609.40,209.40 608.35,211.15 608.00,213.60"/>
    </edge>
    <edge id=":10_6" function="internal">
        <lane id=":10_6_0" index="0" speed="13.89" length="27.20" shape="613.60,208.00 586.40,208.00"/>
        <lane id=":10_6_1" index="1" speed="13.89" length="27.20" shape="613.60,204.80 586.40,204.80"/>
        <lane id=":10_6_2" index="2" speed="13.89" length="27.20" shape="613.60,201.60 586.40,201.60"/>
    </edge>
    <edge id=":10_9" function="internal">
        <lane id=":10_9_0" index="0" speed="10.36" length="24.51" shape="613.60,201.60 606.95,200.65 602.20,197.80 599.35,193.05 598.40,186.40"/>
    </edge>
    <edge id=":10_10" function="internal">
        <lane id=":10_10_0" index="0" speed="6.51" length="9.03" shape="608.00,186.40 608.35,188.85 609.40,190.60 611.15,191.65 613.60,192.00"/>
    </edge>
    <edge id=":10_11" function="internal">
        <lane id=":10_11_0" index="0" speed="13.89" length="27.20" shape="608.00,186.40 608.00,213.60"/>
        <lane id=":10_11_1" index="1" speed="13.89" length="27.20" shape="604.80,186.40 604.80,213.60"/>
        <lane id=":10_11_2" index="2" speed="13.89" length="27.20" shape="601.60,186.40 601.60,213.60"/>
    </edge>
    <edge id=":10_14" function="internal">
        <lane id=":10_14_0" index="0" speed="10.36" length="7.98" shape="601.60,186.40 600.65,193.05 600.00,194.13"/>
    </edge>
    <edge id=":10_21" function="internal">
        <lane id=":10_21_0" index="0" speed="10.36" length="16.53" shape="600.00,194.13 597.80,197.80 593.05,200.65 586.40,201.60"/>
    </edge>
    <edge id=":10_15" function="internal">
        <lane id=":10_15_0" index="0" speed="6.51" length="9.03" shape="586.40,192.00 588.85,191.65 590.60,190.60 591.65,188.85 592.00,186.40"/>
    </edge>
    <edge id=":10_16" function="internal">
        <lane id=":10_16_0" index="0" speed="13.89" length="27.20" shape="586.40,192.00 613.60,192.00"/>
        <lane id=":10_16_1" index="1" speed="13.89" length="27.20" shape="586.40,195.20 613.60,195.20"/>
        <lane id=":10_16_2" index="2" speed="13.89" length="27.20" shape="586.40,198.40 613.60,198.40"/>
    </edge>
    <edge id=":10_19" function="internal">
        <lane id=":10_19_0" index="0" speed="10.36" length="24.51" shape="586.40,198.40 593.05,199.35 597.80,202.20 600.65,206.95 601.60,213.60"/>
    </edge>
    <edge id=":11_0" function="internal">
        <lane id=":11_0_0" index="0" speed="6.51" length="9.03" shape="592.00,613.60 591.65,611.15 590.60,609.40 588.85,608.35 586.40,608.00"/>
    </edge>
    <edge id=":11_1" function="internal">
        <lane id=":11_1_0" index="0" speed="13.89" length="27.20" shape="592.00,613.60 592.00,586.40"/>
        <lane id=":11_1_1" index="1" speed="13.89" length="27.20" shape="595.20,613.60 595.20,586.40"/>
        <lane id=":11_1_2" index="2" speed="13.89" length="27.20" shape="598.40,613.60 598.40,586.40"/>
    </edge>
    <edge id=":11_4" function="internal">
        <lane id=":11_4_0" index="0" speed="10.36" length="7.98" shape="598.40,613.60 599.35,606.95 600.00,605.87"/>
    </edge>
    <edge id=":11_20" function="internal">
        <lane id=":11_20_0" index="0" speed="10.36" length="16.53" shape="600.00,605.87 602.20,602.20 606.95,599.35 613.60,598.40"/>
    </edge>
    <edge id=":11_5" function="internal">
        <lane id=":11_5_0" index="0" speed="6.51" length="9.03" shape="613.60,608.00 611.15,608.35 609.40,609.40 608.35,611.15 608.00,613.60"/>
    </edge>
    <edge id=":11_6" function="internal">
        <lane id=":11_6_0" index="0" speed="13.89" length="27.20" shape="613.60,608.00 586.40,608.00"/>
        <lane id=":11_6_1" index="1" speed="13.89" length="27.20" shape="613.60,604.80 586.40,604.80"/>
        <lane id=":11_6_2" index="2" speed="13.89" length="27.20" shape="613.60,601.60 586.40,601.60"/>
    </edge>
    <edge id=":11_9" function="internal">
        <lane id=":11_9_0" index="0" speed="10.36" length="24.51" shape="613.60,601.60 606.95,600.65 602.20,597.80 599.35,593.05 598.40,586.40"/>
    </edge>
    <edge id=":11_10" function="internal">
        <lane id=":11_10_0" index="0" speed="6.51" length="9.03" shape="608.00,586.40 608.35,588.85 609.40,590.60 611.15,591.65 613.60,592.00"/>
    </edge>
    <edge id=":11_11" function="internal">
        <lane id=":11_11_0" index="0" speed="13.89" length="27.20" shape="608.00,586.40 608.00,613.60"/>
        <lane id=":11_11_1" index="1" speed="13.89" length="27.20" shape="604.80,586.40 604.80,613.60"/>
        <lane id=":11_11_2" index="2" speed="13.89" length="27.20" shape="601.60,586.40 601.60,613.60"/>
    </edge>
    <edge id=":11_14" function="internal">
        <lane id=":11_14_0" index="0" speed="10.36" length="7.98" shape="601.60,586.40 600.65,593.05 600.00,594.13"/>
    </edge>
    <edge id=":11_21" function="internal">
        <lane id=":11_21_0" index="0" speed="10.36" length="16.53" shape="600.00,594.13 597.80,597.80 593.05,600.65 586.40,601.60"/>
    </edge>
    <edge id=":11_15" function="internal">
        <lane id=":11_15_0" index="0" speed="6.51" length="9.03" shape="586.40,592.00 588.85,591.65 590.60,590.60 591.65,588.85 592.00,586.40"/>
    </edge>
    <edge id=":11_16" function="internal">
        <lane id=":11_16_0" index="0" speed="13.89" length="27.20" shape="586.40,592.00 613.60,592.00"/>
        <lane id=":11_16_1" index="1" speed="13.89" length="27.20" shape="586.40,595.20 613.60,595.20"/>
        <lane id=":11_16_2" index="2" speed="13.89" length="27.20" shape="586.40,598.40 613.60,598.40"/>
    </edge>
    <edge id=":11_19" function="internal">
        <lane id=":11_19_0" index="0" speed="10.36" length="24.51" shape="586.40,598.40 593.05,599.35 597.80,602.20 600.65,606.95 601.60,613.60"/>
    </edge>
    <edge id=":12_0" function="internal">
        <lane id=":12_0_0" index="0" speed="6.51" length="9.03" shape="592.00,1013.60 591.65,1011.15 590.60,1009.40 588.85,1008.35 586.40,1008.00"/>
    </edge>
    <edge id=":12_1" function="internal">
        <lane id=":12_1_0" index="0" speed="13.89" length="27.20" shape="592.00,1013.60 592.00,986.40"/>
        <lane id=":12_1_1" index="1" speed="13.89" length="27.20" shape="595.20,1013.60 595.20,986.40"/>
        <lane id=":12_1_2" index="2" speed="13.89" length="27.20" shape="598.40,1013.60 598.40,986.40"/>
    </edge>
    <edge id=":12_4" function="internal">
        <lane id=":12_4_0" index="0" speed="10.36" length="7.98" shape="598.40,1013.60 599.35,1006.95 600.00,1005.87"/>
    </edge>
    <edge id=":12_20" function="internal">
        <lane id=":12_20_0" index="0" speed="10.36" length="16.53" shape="600.00,1005.87 602.20,1002.20 606.95,999.35 613.60,998.40"/>
    </edge>
    <edge id=":12_5" function="internal">
        <lane id=":12_5_0" index="0" speed="6.51" length="9.03" shape="613.60,1008.00 611.15,1008.35 609.40,1009.40 608.35,1011.15 608.00,1013.60"/>
    </edge>
    <edge id=":12_6" function="internal">
        <lane id=":12_6_0" index="0" speed="13.89" length="27.20" shape="613.60,1008.00 586.40,1008.00"/>
        <lane id=":12_6_1" index="1" speed="13.89" length="27.20" shape="613.60,1004.80 586.40,1004.80"/>
        <lane id=":12_6_2" index="2" speed="13.89" length="27.20" shape="613.60,1001.60 586.40,1001.60"/>
    </edge>
    <edge id=":12_9" function="internal">
        <lane id=":12_9_0" index="0" speed="10.36" length="24.51" shape="613.60,1001.60 606.95,1000.65 602.20,997.80 599.35,993.05 598.40,986.40"/>
    </edge>
    <edge id=":12_10" function="internal">
        <lane id=":12_10_0" index="0" speed="6.51" length="9.03" shape="608.00,986.40 608.35,988.85 609.40,990.60 611.15,991.65 613.60,992.00"/>
    </edge>
    <edge id=":12_11" function="internal">
        <lane id=":12_11_0" index="0" speed="13.89" length="27.20" shape="608.00,986.40 608.00,1013.60"/>
        <lane id=":12_11_1" index="1" speed="13.89" length="27.20" shape="604.80,986.40 604.80,1013.60"/>
        <lane id=":12_11_2" index="2" speed="13.89" length="27.20" shape="601.60,986.40 601.60,1013.60"/>
    </edge>
    <edge id=":12_14" function="internal">
        <lane id=":12_14_0" index="0" speed="10.36" length="7.98" shape="601.60,986.40 600.65,993.05 600.00,994.13"/>
    </edge>
    <edge id=":12_21" function="internal">
        <lane id=":12_21_0" index="0" speed="10.36" length="16.53" shape="600.00,994.13 597.80,997.80 593.05,1000.65 586.40,1001.60"/>
    </edge>
    <edge id=":12_15" function="internal">
        <lane id=":12_15_0" index="0" speed="6.51" length="9.03" shape="586.40,992.00 588.85,991.65 590.60,990.60 591.65,988.85 592.00,986.40"/>
    </edge>
    <edge id=":12_16" function="internal">
        <lane id=":12_16_0" index="0" speed="13.89" length="27.20" shape="586.40,992.00 613.60,992.00"/>
        <lane id=":12_16_1" index="1" speed="13.89" length="27.20" shape="586.40,995.20 613.60,995.20"/>
        <lane id=":12_16_2" index="2" speed="13.89" length="27.20" shape="586.40,998.40 613.60,998.40"/>
    </edge>
    <edge id=":12_19" function="internal">
        <lane id=":12_19_0" index="0" speed="10.36" length="24.51" shape="586.40,998.40 593.05,999.35 597.80,1002.20 600.65,1006.95 601.60,1013.60"/>
    </edge>
    <edge id=":13_0" function="internal">
        <lane id=":13_0_0" index="0" speed="6.51" length="9.03" shape="592.00,1413.60 591.65,1411.15 590.60,1409.40 588.85,1408.35 586.40,1408.00"/>
    </edge>
    <edge id=":13_1" function="internal">
        <lane id=":13_1_0" index="0" speed="13.89" length="27.20" shape="592.00,1413.60 592.00,1386.40"/>
        <lane id=":13_1_1" index="1" speed="13.89" length="27.20" shape="595.20,1413.60 595.20,1386.40"/>
        <lane id=":13_1_2" index="2" speed="13.89" length="27.20" shape="598.40,1413.60 598.40,1386.40"/>
    </edge>
    <edge id=":13_4" function="internal">
        <lane id=":13_4_0" index="0" speed="10.36" length="7.98" shape="598.40,1413.60 599.35,1406.95 600.00,1405.87"/>
    </edge>
    <edge id=":13_20" function="internal">
        <lane id=":13_20_0" index="0" speed="10.36" length="16.53" shape="600.00,1405.87 602.20,1402.20 606.95,1399.35 613.60,1398.40"/>
    </edge>
    <edge id=":13_5" function="internal">
        <lane id=":13_5_0" index="0" speed="6.51" length="9.03" shape="613.60,1408.00 611.15,1408.35 609.40,1409.40 608.35,1411.15 608.00,1413.60"/>
    </edge>
    <edge id=":13_6" function="internal">
        <lane id=":13_6_0" index="0" speed="13.89" length="27.20" shape="613.60,1408.00 586.40,1408.00"/>
        <lane id=":13_6_1" index="1" speed="13.89" length="27.20" shape="613.60,1404.80 586.40,1404.80"/>
        <lane id=":13_6_2" index="2" speed="13.89" length="27.20" shape="613.60,1401.60 586.40,1401.60"/>
    </edge>
    <edge id=":13_9" function="internal">
        <lane id=":13_9_0" index="0" speed="10.36" length="24.51" shape="613.60,1401.60 606.95,1400.65 602.20,1397.80 599.35,1393.05 598.40,1386.40"/>
    </edge>
    <edge id=":13_10" function="internal">
        <lane id=":13_10_0" index="0" speed="6.51" length="9.03" shape="608.00,1386.40 608.35,1388.85 609.40,1390.60 611.15,1391.65 613.60,1392.00"/>
    </edge>
    <edge id=":13_11" function="internal">
        <lane id=":13_11_0" index="0" speed="13.89" length="27.20" shape="608.00,1386.40 608.00,1413.60"/>
        <lane id=":13_11_1" index="1" speed="13.89" length="27.20" shape="604.80,1386.40 604.80,1413.60"/>
        <lane id=":13_11_2" index="2" speed="13.89" length="27.20" shape="601.60,1386.40 601.60,1413.60"/>
    </edge>
    <edge id=":13_14" function="internal">
        <lane id=":13_14_0" index="0" speed="10.36" length="7.98" shape="601.60,1386.40 600.65,1393.05 600.00,1394.13"/>
    </edge>
    <edge id=":13_21" function="internal">
        <lane id=":13_21_0" index="0" speed="10.36" length="16.53" shape="600.00,1394.13 597.80,1397.80 593.05,1400.65 586.40,1401.60"/>
    </edge>
    <edge id=":13_15" function="internal">
        <lane id=":13_15_0" index="0" speed="6.51" length="9.03" shape="586.40,1392.00 588.85,1391.65 590.60,1390.60 591.65,1388.85 592.00,1386.40"/>
    </edge>
    <edge id=":13_16" function="internal">
        <lane id=":13_16_0" index="0" speed="13.89" length="27.20" shape="586.40,1392.00 613.60,1392.00"/>
        <lane id=":13_16_1" index="1" speed="13.89" length="27.20" shape="586.40,1395.20 613.60,1395.20"/>
        <lane id=":13_16_2" index="2" speed="13.89" length="27.20" shape="586.40,1398.40 613.60,1398.40"/>
    </edge>
    <edge id=":13_19" function="internal">
        <lane id=":13_19_0" index="0" speed="10.36" length="24.51" shape="586.40,1398.40 593.05,1399.35 597.80,1402.20 600.65,1406.95 601.60,1413.60"/>
    </edge>
    <edge id=":14_0" function="internal">
        <lane id=":14_0_0" index="0" speed="6.51" length="9.03" shape="592.00,1813.60 591.65,1811.15 590.60,1809.40 588.85,1808.35 586.40,1808.00"/>
    </edge>
    <edge id=":14_1" function="internal">
        <lane id=":14_1_0" index="0" speed="13.89" length="27.20" shape="592.00,1813.60 592.00,1786.40"/>
        <lane id=":14_1_1" index="1" speed="13.89" length="27.20" shape="595.20,1813.60 595.20,1786.40"/>
        <lane id=":14_1_2" index="2" speed="13.89" length="27.20" shape="598.40,1813.60 598.40,1786.40"/>
    </edge>
    <edge id=":14_4" function="internal">
        <lane id=":14_4_0" index="0" speed="10.36" length="7.98" shape="598.40,1813.60 599.35,1806.95 600.00,1805.87"/>
    </edge>
    <edge id=":14_20" function="internal">
        <lane id=":14_20_0" index="0" speed="10.36" length="16.53" shape="600.00,1805.87 602.20,1802.20 606.95,1799.35 613.60,1798.40"/>
    </edge>
    <edge id=":14_5" function="internal">
        <lane id=":14_5_0" index="0" speed="6.51" length="9.03" shape="613.60,1808.00 611.15,1808.35 609.40,1809.40 608.35,1811.15 608.00,1813.60"/>
    </edge>
    <edge id=":14_6" function="internal">
        <lane id=":14_6_0" index="0" speed="13.89" length="27.20" shape="613.60,1808.00 586.40,1808.00"/>
        <lane id=":14_6_1" index="1" speed="13.89" length="27.20" shape="613.60,1804.80 586.40,1804.80"/>
        <lane id=":14_6_2" index="2" speed="13.89" length="27.20" shape="613.60,1801.60 586.40,1801.60"/>
    </edge>
    <edge id=":14_9" function="internal">
        <lane id=":14_9_0" index="0" speed="10.36" length="24.51" shape="613.60,1801.60 606.95,1800.65 602.20,1797.80 599.35,1793.05 598.40,1786.40"/>
    </edge>
    <edge id=":14_10" function="internal">
        <lane id=":14_10_0" index="0" speed="6.51" length="9.03" shape="608.00,1786.40 608.35,1788.85 609.40,1790.60 611.15,1791.65 613.60,1792.00"/>
    </edge>
    <edge id=":14_11" function="internal">
        <lane id=":14_11_0" index="0" speed="13.89" length="27.20" shape="608.00,1786.40 608.00,1813.60"/>
        <lane id=":14_11_1" index="1" speed="13.89" length="27.20" shape="604.80,1786.40 604.80,1813.60"/>
        <lane id=":14_11_2" index="2" speed="13.89" length="27.20" shape="601.60,1786.40 601.60,1813.60"/>
    </edge>
    <edge id=":14_14" function="internal">
        <lane id=":14_14_0" index="0" speed="10.36" length="7.98" shape="601.60,1786.40 600.65,1793.05 600.00,1794.13"/>
    </edge>
    <edge id=":14_21" function="internal">
        <lane id=":14_21_0" index="0" speed="10.36" length="16.53" shape="600.00,1794.13 597.80,1797.80 593.05,1800.65 586.40,1801.60"/>
    </edge>
    <edge id=":14_15" function="internal">
        <lane id=":14_15_0" index="0" speed="6.51" length="9.03" shape="586.40,1792.00 588.85,1791.65 590.60,1790.60 591.65,1788.85 592.00,1786.40"/>
    </edge>
    <edge id=":14_16" function="internal">
        <lane id=":14_16_0" index="0" speed="13.89" length="27.20" shape="586.40,1792.00 613.60,1792.00"/>
        <lane id=":14_16_1" index="1" speed="13.89" length="27.20" shape="586.40,1795.20 613.60,1795.20"/>
        <lane id=":14_16_2" index="2" speed="13.89" length="27.20" shape="586.40,1798.40 613.60,1798.40"/>
    </edge>
    <edge id=":14_19" function="internal">
        <lane id=":14_19_0" index="0" speed="10.36" length="24.51" shape="586.40,1798.40 593.05,1799.35 597.80,1802.20 600.65,1806.95 601.60,1813.60"/>
    </edge>
    <edge id=":15_0" function="internal">
        <lane id=":15_0_0" index="0" speed="6.51" length="9.03" shape="592.00,2213.60 591.65,2211.15 590.60,2209.40 588.85,2208.35 586.40,2208.00"/>
    </edge>
    <edge id=":15_1" function="internal">
        <lane id=":15_1_0" index="0" speed="13.89" length="27.20" shape="592.00,2213.60 592.00,2186.40"/>
        <lane id=":15_1_1" index="1" speed="13.89" length="27.20" shape="595.20,2213.60 595.20,2186.40"/>
        <lane id=":15_1_2" index="2" speed="13.89" length="27.20" shape="598.40,2213.60 598.40,2186.40"/>
    </edge>
    <edge id=":15_4" function="internal">
        <lane id=":15_4_0" index="0" speed="10.36" length="7.98" shape="598.40,2213.60 599.35,2206.95 600.00,2205.87"/>
    </edge>
    <edge id=":15_20" function="internal">
        <lane id=":15_20_0" index="0" speed="10.36" length="16.53" shape="600.00,2205.87 602.20,2202.20 606.95,2199.35 613.60,2198.40"/>
    </edge>
    <edge id=":15_5" function="internal">
        <lane id=":15_5_0" index="0" speed="6.51" length="9.03" shape="613.60,2208.00 611.15,2208.35 609.40,2209.40 608.35,2211.15 608.00,2213.60"/>
    </edge>
    <edge id=":15_6" function="internal">
        <lane id=":15_6_0" index="0" speed="13.89" length="27.20" shape="613.60,2208.00 586.40,2208.00"/>
        <lane id=":15_6_1" index="1" speed="13.89" length="27.20" shape="613.60,2204.80 586.40,2204.80"/>
        <lane id=":15_6_2" index="2" speed="13.89" length="27.20" shape="613.60,2201.60 586.40,2201.60"/>
    </edge>
    <edge id=":15_9" function="internal">
        <lane id=":15_9_0" index="0" speed="10.36" length="24.51" shape="613.60,2201.60 606.95,2200.65 602.20,2197.80 599.35,2193.05 598.40,2186.40"/>
    </edge>
    <edge id=":15_10" function="internal">
        <lane id=":15_10_0" index="0" speed="6.51" length="9.03" shape="608.00,2186.40 608.35,2188.85 609.40,2190.60 611.15,2191.65 613.60,2192.00"/>
    </edge>
    <edge id=":15_11" function="internal">
        <lane id=":15_11_0" index="0" speed="13.89" length="27.20" shape="608.00,2186.40 608.00,2213.60"/>
        <lane id=":15_11_1" index="1" speed="13.89" length="27.20" shape="604.80,2186.40 604.80,2213.60"/>
        <lane id=":15_11_2" index="2" speed="13.89" length="27.20" shape="601.60,2186.40 601.60,2213.60"/>
    </edge>
    <edge id=":15_14" function="internal">
        <lane id=":15_14_0" index="0" speed="10.36" length="7.98" shape="601.60,2186.40 600.65,2193.05 600.00,2194.13"/>
    </edge>
    <edge id=":15_21" function="internal">
        <lane id=":15_21_0" index="0" speed="10.36" length="16.53" shape="600.00,2194.13 597.80,2197.80 593.05,2200.65 586.40,2201.60"/>
    </edge>
    <edge id=":15_15" function="internal">
        <lane id=":15_15_0" index="0" speed="6.51" length="9.03" shape="586.40,2192.00 588.85,2191.65 590.60,2190.60 591.65,2188.85 592.00,2186.40"/>
    </edge>
    <edge id=":15_16" function="internal">
        <lane id=":15_16_0" index="0" speed="13.89" length="27.20" shape="586.40,2192.00 613.60,2192.00"/>
        <lane id=":15_16_1" index="1" speed="13.89" length="27.20" shape="586.40,2195.20 613.60,2195.20"/>
        <lane id=":15_16_2" index="2" speed="13.89" length="27.20" shape="586.40,2198.40 613.60,2198.40"/>
    </edge>
    <edge id=":15_19" function="internal">
        <lane id=":15_19_0" index="0" speed="10.36" length="24.51" shape="586.40,2198.40 593.05,2199.35 597.80,2202.20 600.65,2206.95 601.60,2213.60"/>
    </edge>
    <edge id=":16_0" function="internal">
        <lane id=":16_0_0" index="0" speed="6.51" length="9.03" shape="592.00,2613.60 591.65,2611.15 590.60,2609.40 588.85,2608.35 586.40,2608.00"/>
    </edge>
    <edge id=":16_1" function="internal">
        <lane id=":16_1_0" index="0" speed="13.89" length="27.20" shape="592.00,2613.60 592.00,2586.40"/>
        <lane id=":16_1_1" index="1" speed="13.89" length="27.20" shape="595.20,2613.60 595.20,2586.40"/>
        <lane id=":16_1_2" index="2" speed="13.89" length="27.20" shape="598.40,2613.60 598.40,2586.40"/>
    </edge>
    <edge id=":16_4" function="internal">
        <lane id=":16_4_0" index="0" speed="10.36" length="7.98" shape="598.40,2613.60 599.35,2606.95 600.00,2605.87"/>
    </edge>