<?xml version="1.0" encoding="UTF-8"?>

<configuration>

    <input>
        <net-file value="grid.tls.net.xml"/>
        <route-files value="routes.xml"/>
    </input>

    <report>
        <no-step-log value="true"/>
    </report>

</configuration>
